Zeroth_cont_Updated_Austin/syn-Austin-TDgrid-v03/syn-austin-D_only-v03/P1U/base/opendss/p1uhs17_1247/p1uhs17_1247--p1udt1947/Lines.dss
New Line.l(r:p1udm7057-p1ulv2043) Units=km Length=0.00297874 bus1=p1udm7057.1.2 bus2=p1ulv2043.1.2 switch=n enabled=y phases=2 Linecode=1P_OH_AL_4_Periwinkle_0_416_0_2_2_2_2

New Line.l(r:p1udm7057-p1udt1947lv) Units=km Length=0.0334517 bus1=p1udt1947lv.1.2 bus2=p1udm7057.1.2 switch=n enabled=y phases=2 Linecode=1P_OH_AL_4/0_Zuzara_0_416_0_2_2_2_2

New Line.l(r:p1udm7058-p1ulv13349) Units=km Length=0.0028507 bus1=p1udm7058.1.2 bus2=p1ulv13349.1.2 switch=n enabled=y phases=2 Linecode=1P_OH_AL_4_Periwinkle_0_416_0_2_2_2_2

New Line.l(r:p1udm7058-p1udt1947lv) Units=km Length=0.0199775 bus1=p1udt1947lv.1.2 bus2=p1udm7058.1.2 switch=n enabled=y phases=2 Linecode=1P_OH_AL_2/0_Rucina_0_416_0_2_2_2_2

New Line.l(r:p1udm7059-p1ulv33043) Units=km Length=0.00140663 bus1=p1udm7059.1.2 bus2=p1ulv33043.1.2 switch=n enabled=y phases=2 Linecode=1P_OH_AL_4_Periwinkle_0_416_0_2_2_2_2

New Line.l(r:p1udm7059-p1udt1947lv) Units=km Length=0.0337835 bus1=p1udt1947lv.1.2 bus2=p1udm7059.1.2 switch=n enabled=y phases=2 Linecode=1P_OH_AL_4/0_Zuzara_0_416_0_2_2_2_2

New Line.l(r:p1udm7060-p1ulv55683) Units=km Length=0.00180945 bus1=p1udm7060.1.2 bus2=p1ulv55683.1.2 switch=n enabled=y phases=2 Linecode=1P_OH_AL_4_Periwinkle_0_416_0_2_2_2_2

New Line.l(r:p1udm7060-p1udt1947lv) Units=km Length=0.0193636 bus1=p1udt1947lv.1.2 bus2=p1udm7060.1.2 switch=n enabled=y phases=2 Linecode=1P_OH_AL_2/0_Rucina_0_416_0_2_2_2_2

New Line.l(r:p1udt13282lv-p1ulv19064) Units=km Length=0.00392195 bus1=p1udt13282lv.1.2 bus2=p1ulv19064.1.2 switch=n enabled=y phases=2 Linecode=1P_OH_AL_4_Periwinkle_0_416_0_2_2_2_2

New Line.l(r:p1udt20050lv-p1ulv38425) Units=km Length=0.0306334 bus1=p1udt20050lv.1.2 bus2=p1ulv38425.1.2 switch=n enabled=y phases=2 Linecode=1P_OH_AL_4/0_Zuzara_0_416_0_2_2_2_2

New Line.l(r:p1udt21029lv-p1ulv42499) Units=km Length=0.00612531 bus1=p1udt21029lv.1.2 bus2=p1ulv42499.1.2 switch=n enabled=y phases=2 Linecode=1P_OH_AL_2/0_Rucina_0_416_0_2_2_2_2

New Line.l(r:p1udt21798lv-p1ulv46016) Units=km Length=0.077463 bus1=p1udt21798lv.1.2 bus2=p1ulv46016.1.2 switch=n enabled=y phases=2 Linecode=1P_OH_AL_4/0_Zuzara_0_416_0_2_2_2_2

New Line.l(r:p1udt20050-p1udt7267) Units=km Length=0.149256 bus1=p1udt20050-p1udt7267x.2 bus2=p1udt20050.2 switch=n enabled=y phases=1 Linecode=1P_OH_AL_ACSR_#2_Sparrow_12_47_0_1_1_1_1

New Line.l(r:p1udt21798-p1udt7267) Units=km Length=0.090992 bus1=p1udt21798-p1udt7267x.3 bus2=p1udt21798.3 switch=n enabled=y phases=1 Linecode=1P_OH_AL_ACSR_#2_Sparrow_12_47_0_1_1_1_1

New Line.l(r:p1udt15201-p1udt22990) Units=km Length=0.236725 bus1=p1udt22990.1.2.3 bus2=p1udt15201.1.2.3 switch=n enabled=y phases=3 Linecode=3P_OH_AL_ACSR_4/0_Penguin_12_47_0_3_3_3_3

New Line.l(r:p1udt22990-p1udt23806) Units=km Length=0.261452 bus1=p1udt23806.1.2.3 bus2=p1udt22990.1.2.3 switch=n enabled=y phases=3 Linecode=3P_OH_AL_ACSR_4/0_Penguin_12_47_0_3_3_3_3

New Line.l(r:p1udt19983-p1udt23806) Units=km Length=0.21991200000000002 bus1=p1udt19983.1.2.3 bus2=p1udt23806.1.2.3 switch=n enabled=y phases=3 Linecode=3P_OH_AL_ACSR_4/0_Penguin_12_47_0_3_3_3_3

New Line.l(r:p1udt22383-p1udt19983mid)      Units=km Length=0.081251 bus1=p1udt22383.1.2.3      bus2=p1udt22383mid.1.2.3 switch=n enabled=y phases=3 Linecode=3P_OH_AL_ACSR_4/0_Penguin_12_47_0_3_3_3_3

New Line.l(r:p1udt22383mid-p1udt19983) Units=km Length=0.081251 bus1=p1udt22383mid_RG.1.2.3 bus2=p1udt19983.1.2.3      switch=n enabled=y phases=3 Linecode=3P_OH_AL_ACSR_4/0_Penguin_12_47_0_3_3_3_3

New Line.l(r:p1udt21029-p1udt22383) Units=km Length=0.283846 bus1=p1udt21029.1.2.3 bus2=p1udt22383.1.2.3 switch=n enabled=y phases=3 Linecode=3P_OH_AL_ACSR_4/0_Penguin_12_47_0_3_3_3_3

New Line.l(r:p1udt21029-p1udt24439) Units=km Length=0.11928 bus1=p1udt24439.1.2.3 bus2=p1udt21029.1.2.3 switch=n enabled=y phases=3 Linecode=3P_OH_AL_ACSR_4/0_Penguin_12_47_0_3_3_3_3

New Line.l(r:p1udt110-p1udt23807) Units=km Length=0.136064 bus1=p1udt23807.1.2.3 bus2=p1udt110.1.2.3 switch=n enabled=y phases=3 Linecode=3P_OH_AL_ACSR_4/0_Penguin_12_47_0_3_3_3_3

New Line.l(r:p1udt23807-p1udt3660) Units=km Length=0.0340619 bus1=p1udt3660.1.2.3 bus2=p1udt23807.1.2.3 switch=n enabled=y phases=3 Linecode=3P_OH_AL_ACSR_4/0_Penguin_12_47_0_3_3_3_3

New Line.l(r:p1udt3660-p1udt3662) Units=km Length=0.1746 bus1=p1udt3662.1.2.3 bus2=p1udt3660.1.2.3 switch=n enabled=y phases=3 Linecode=3P_OH_AL_ACSR_4/0_Penguin_12_47_0_3_3_3_3

New Line.l(r:p1udt24957-p1udt3662) Units=km Length=0.298729 bus1=p1udt24957.1.2.3 bus2=p1udt3662.1.2.3 switch=n enabled=y phases=3 Linecode=3P_OH_AL_ACSR_4/0_Penguin_12_47_0_3_3_3_3

New Line.l(r:p1udt24439-p1udt24957) Units=km Length=0.0680695 bus1=p1udt24439.1.2.3 bus2=p1udt24957.1.2.3 switch=n enabled=y phases=3 Linecode=3P_OH_AL_ACSR_4/0_Penguin_12_47_0_3_3_3_3

New Line.l(r:p1udt24141-p1udt24439) Units=km Length=0.236254 bus1=p1udt24141.1.2.3 bus2=p1udt24439.1.2.3 switch=n enabled=y phases=3 Linecode=3P_OH_AL_ACSR_4/0_Penguin_12_47_0_3_3_3_3

New Line.l(r:p1udt16652-p1udt24141) Units=km Length=0.0503667 bus1=p1udt16652.1.2.3 bus2=p1udt24141.1.2.3 switch=n enabled=y phases=3 Linecode=3P_OH_AL_ACSR_4/0_Penguin_12_47_0_3_3_3_3

New Line.l(r:p1udt16652-p1udt1947) Units=km Length=0.205422 bus1=p1udt1947.1.2.3 bus2=p1udt16652.1.2.3 switch=n enabled=y phases=3 Linecode=3P_OH_AL_ACSR_4/0_Penguin_12_47_0_3_3_3_3

New Line.l(r:p1udt1947-p1uhs17_1247) Units=km Length=0.19511799999999999 bus1=p1udt1947-p1uhs17_1247x_12lvRG.1.2.3 bus2=p1udt1947-p1uhs17_1247x_b1_1.1.2.3 switch=n enabled=y phases=3 Linecode=3P_OH_AL_ACSR_4/0_Penguin_12_47_0_3_3_3_3

New Line.l(r:p1udt16652lv-p1ulv27360) Units=km Length=0.00518417 bus1=p1udt16652lv.1.2.3 bus2=p1ulv27360.1.2.3 switch=n enabled=y phases=3 Linecode=3P_UG_AL_750kcmil_25_0_416_0_3_3_3_3

New Line.l(r:p1udt24141lv-p1ulv58076) Units=km Length=0.0080096 bus1=p1udt24141lv.1.2.3 bus2=p1ulv58076.1.2.3 switch=n enabled=y phases=3 Linecode=3P_UG_AL_350kcmil_15_0_416_0_3_3_3_3

New Line.l(r:p1udt24439lv-p1ulv59882) Units=km Length=0.00859992 bus1=p1udt24439lv.1.2.3 bus2=p1ulv59882.1.2.3 switch=n enabled=y phases=3 Linecode=3P_UG_AL_350kcmil_15_0_416_0_3_3_3_3

New Line.l(r:p1udt22383lv-p1ulv48817) Units=km Length=0.00572983 bus1=p1udt22383lv.1.2.3 bus2=p1ulv48817.1.2.3 switch=n enabled=y phases=3 Linecode=3P_UG_AL_350kcmil_15_0_416_0_3_3_3_3

New Line.l(r:p1udt16187lv-p1ulv26066) Units=km Length=0.0161188 bus1=p1udt16187lv.1.2.3 bus2=p1ulv26066.1.2.3 switch=n enabled=y phases=3 Linecode=3P_UG_AL_350kcmil_15_0_416_0_3_3_3_3

New Line.l(r:p1udt10925lv-p1ulv14569) Units=km Length=0.00659919 bus1=p1udt10925lv.1.2.3 bus2=p1ulv14569.1.2.3 switch=n enabled=y phases=3 Linecode=3P_UG_AL_350kcmil_15_0_416_0_3_3_3_3

New Line.l(r:p1udt10925-p1udt16187) Units=km Length=0.056845 bus1=p1udt16187.1.2.3 bus2=p1udt10925.1.2.3 switch=n enabled=y phases=3 Linecode=3P_OH_AL_ACSR_4/0_Penguin_12_47_0_3_3_3_3

New Line.l(r:p1udt16187-p1udt22383) Units=km Length=0.132054 bus1=p1udt22383.1.2.3 bus2=p1udt16187.1.2.3 switch=n enabled=y phases=3 Linecode=3P_OH_AL_ACSR_4/0_Penguin_12_47_0_3_3_3_3

New Line.l(r:p1udt19983lv-p1ulv38101) Units=km Length=0.0156745 bus1=p1udt19983lv.1.2.3 bus2=p1ulv38101.1.2.3 switch=n enabled=y phases=3 Linecode=3P_UG_AL_750kcmil_25_0_416_0_3_3_3_3

New Line.l(r:p1udt13860lv-p1ulv20329) Units=km Length=0.00962298 bus1=p1udt13860lv.1.2.3 bus2=p1ulv20329.1.2.3 switch=n enabled=y phases=3 Linecode=3P_UG_AL_750kcmil_25_0_416_0_3_3_3_3

New Line.l(r:p1udt20754lv-p1ulv41248) Units=km Length=0.0111285 bus1=p1udt20754lv.1.2.3 bus2=p1ulv41248.1.2.3 switch=n enabled=y phases=3 Linecode=3P_UG_AL_350kcmil_15_0_416_0_3_3_3_3

New Line.l(r:p1udt13282-p1udt20754) Units=km Length=0.075468 bus1=p1udt13282.1.2.3 bus2=p1udt20754.1.2.3 switch=n enabled=y phases=3 Linecode=3P_OH_AL_ACSR_4/0_Penguin_12_47_0_3_3_3_3

New Line.l(r:p1udt13282-p1udt13860) Units=km Length=0.207347 bus1=p1udt13860.1.2.3 bus2=p1udt13282.1.2.3 switch=n enabled=y phases=3 Linecode=3P_OH_AL_ACSR_4/0_Penguin_12_47_0_3_3_3_3

New Line.l(r:p1udt13860-p1udt19983) Units=km Length=0.195085 bus1=p1udt19983.1.2.3 bus2=p1udt13860.1.2.3 switch=n enabled=y phases=3 Linecode=3P_OH_AL_ACSR_4/0_Penguin_12_47_0_3_3_3_3

New Line.l(r:p1udt23806lv-p1ulv56274) Units=km Length=0.0141217 bus1=p1udt23806lv.1.2.3 bus2=p1ulv56274.1.2.3 switch=n enabled=y phases=3 Linecode=3P_UG_AL_750kcmil_25_0_416_0_3_3_3_3

New Line.l(r:p1udt22990lv-p1ulv51885) Units=km Length=0.00208734 bus1=p1udt22990lv.1.2.3 bus2=p1ulv51885.1.2.3 switch=n enabled=y phases=3 Linecode=3P_UG_AL_750kcmil_25_0_416_0_3_3_3_3

New Line.l(r:p1udt15201lv-p1ulv23515) Units=km Length=0.0114986 bus1=p1udt15201lv.1.2.3 bus2=p1ulv23515.1.2.3 switch=n enabled=y phases=3 Linecode=3P_UG_AL_750kcmil_25_0_416_0_3_3_3_3

New Line.l(r:p1udt2509lv-p1ulv2657) Units=km Length=0.0148566 bus1=p1udt2509lv.1.2.3 bus2=p1ulv2657.1.2.3 switch=n enabled=y phases=3 Linecode=3P_UG_AL_750kcmil_25_0_416_0_3_3_3_3

New Line.l(r:p1udt2509-p1umv27) Units=km Length=0.0756063 bus1=p1umv27.1.2.3 bus2=p1udt2509.1.2.3 switch=n enabled=y phases=3 Linecode=3P_OH_AL_ACSR_4/0_Penguin_12_47_0_3_3_3_3

New Line.l(r:p1udt15201-p1umv27) Units=km Length=0.0844339 bus1=p1udt15201.1.2.3 bus2=p1umv27.1.2.3 switch=n enabled=y phases=3 Linecode=3P_OH_AL_ACSR_4/0_Penguin_12_47_0_3_3_3_3

New Line.l(r:p1udt24341lv-p1ulv59294) Units=km Length=0.0112308 bus1=p1udt24341lv.1.2.3 bus2=p1ulv59294.1.2.3 switch=n enabled=y phases=3 Linecode=3P_UG_AL_350kcmil_15_0_416_0_3_3_3_3

New Line.l(r:p1udt7267lv-p1ulv8655) Units=km Length=0.00249906 bus1=p1udt7267lv.1.2.3 bus2=p1ulv8655.1.2.3 switch=n enabled=y phases=3 Linecode=3P_UG_AL_350kcmil_15_0_416_0_3_3_3_3

New Line.l(r:p1udt24341-p1udt7267) Units=km Length=0.34386 bus1=p1udt24341.1.2.3 bus2=p1udt7267.1.2.3 switch=n enabled=y phases=3 Linecode=3P_OH_AL_ACSR_4/0_Penguin_12_47_0_3_3_3_3

New Line.l(r:p1udt15201-p1udt24341) Units=km Length=0.0450873 bus1=p1udt15201.1.2.3 bus2=p1udt24341.1.2.3 switch=n enabled=y phases=3 Linecode=3P_OH_AL_ACSR_4/0_Penguin_12_47_0_3_3_3_3

New Line.l(r:p1udt21466lv-p1ulv44415) Units=km Length=0.0107285 bus1=p1udt21466lv.1.2.3 bus2=p1ulv44415.1.2.3 switch=n enabled=y phases=3 Linecode=3P_UG_AL_750kcmil_25_0_416_0_3_3_3_3

New Line.l(r:p1udt21466-p1udt22990) Units=km Length=0.20344 bus1=p1udt22990.1.2.3 bus2=p1udt21466.1.2.3 switch=n enabled=y phases=3 Linecode=3P_OH_AL_ACSR_4/0_Penguin_12_47_0_3_3_3_3

New Line.l(r:p1udt22005lv-p1ulv46957) Units=km Length=0.00566414 bus1=p1udt22005lv.1.2.3 bus2=p1ulv46957.1.2.3 switch=n enabled=y phases=3 Linecode=3P_UG_AL_350kcmil_15_0_416_0_3_3_3_3

New Line.l(r:p1udt22005-p1udt22990) Units=km Length=0.118039 bus1=p1udt22990.1.2.3 bus2=p1udt22005.1.2.3 switch=n enabled=y phases=3 Linecode=3P_OH_AL_ACSR_4/0_Penguin_12_47_0_3_3_3_3

New Line.l(r:p1udt24247lv-p1ulv58663) Units=km Length=0.00258936 bus1=p1udt24247lv.1.2.3 bus2=p1ulv58663.1.2.3 switch=n enabled=y phases=3 Linecode=3P_UG_AL_350kcmil_15_0_416_0_3_3_3_3

New Line.l(r:p1udt23806-p1udt24247) Units=km Length=0.421914 bus1=p1udt23806.1.2.3 bus2=p1udt24247.1.2.3 switch=n enabled=y phases=3 Linecode=3P_OH_AL_ACSR_4/0_Penguin_12_47_0_3_3_3_3

New Line.l(r:p1udt24957lv-p1ulv63032) Units=km Length=0.00454274 bus1=p1udt24957lv.1.2.3 bus2=p1ulv63032.1.2.3 switch=n enabled=y phases=3 Linecode=3P_UG_AL_350kcmil_15_0_416_0_3_3_3_3

New Line.l(r:p1udt3662lv-p1ulv3962) Units=km Length=0.00593695 bus1=p1udt3662lv.1.2.3 bus2=p1ulv3962.1.2.3 switch=n enabled=y phases=3 Linecode=3P_UG_AL_350kcmil_15_0_416_0_3_3_3_3

New Line.l(r:p1udt3660lv-p1ulv3960) Units=km Length=0.00268805 bus1=p1udt3660lv.1.2.3 bus2=p1ulv3960.1.2.3 switch=n enabled=y phases=3 Linecode=3P_UG_AL_350kcmil_15_0_416_0_3_3_3_3

New Line.l(r:p1udt23807lv-p1ulv56275) Units=km Length=0.00820315 bus1=p1udt23807lv.1.2.3 bus2=p1ulv56275.1.2.3 switch=n enabled=y phases=3 Linecode=3P_UG_AL_350kcmil_15_0_416_0_3_3_3_3

New Line.l(r:p1udt110lv-p1ulv111) Units=km Length=0.00654664 bus1=p1udt110lv.1.2.3 bus2=p1ulv111.1.2.3 switch=n enabled=y phases=3 Linecode=3P_UG_AL_350kcmil_15_0_416_0_3_3_3_3

New Line.l(r:p1udt19457lv-p1ulv36268) Units=km Length=0.00869945 bus1=p1udt19457lv.1.2.3 bus2=p1ulv36268.1.2.3 switch=n enabled=y phases=3 Linecode=3P_UG_AL_350kcmil_15_0_416_0_3_3_3_3

New Line.l(r:p1udt15202lv-p1ulv23516) Units=km Length=0.0111146 bus1=p1udt15202lv.1.2.3 bus2=p1ulv23516.1.2.3 switch=n enabled=y phases=3 Linecode=3P_UG_AL_350kcmil_15_0_416_0_3_3_3_3

New Line.l(r:p1udt18509lv-p1ulv33047) Units=km Length=0.00971019 bus1=p1udt18509lv.1.2.3 bus2=p1ulv33047.1.2.3 switch=n enabled=y phases=3 Linecode=3P_UG_AL_350kcmil_15_0_416_0_3_3_3_3

New Line.l(r:p1udt19633lv-p1ulv36859) Units=km Length=0.00554564 bus1=p1udt19633lv.1.2.3 bus2=p1ulv36859.1.2.3 switch=n enabled=y phases=3 Linecode=3P_UG_AL_350kcmil_15_0_416_0_3_3_3_3

New Line.l(r:p1udt21176lv-p1ulv43126) Units=km Length=0.00951517 bus1=p1udt21176lv.1.2.3 bus2=p1ulv43126.1.2.3 switch=n enabled=y phases=3 Linecode=3P_UG_AL_350kcmil_15_0_416_0_3_3_3_3

New Line.l(r:p1udt19633-p1udt21176) Units=km Length=0.112096 bus1=p1udt19633.1.2.3 bus2=p1udt21176.1.2.3 switch=n enabled=y phases=3 Linecode=3P_OH_AL_ACSR_4/0_Penguin_12_47_0_3_3_3_3

New Line.l(r:p1udt18509-p1udt19633) Units=km Length=0.161465 bus1=p1udt18509.1.2.3 bus2=p1udt19633.1.2.3 switch=n enabled=y phases=3 Linecode=3P_OH_AL_ACSR_4/0_Penguin_12_47_0_3_3_3_3

New Line.l(r:p1udt15202-p1udt18509) Units=km Length=0.12553 bus1=p1udt15202.1.2.3 bus2=p1udt18509.1.2.3 switch=n enabled=y phases=3 Linecode=3P_OH_AL_ACSR_4/0_Penguin_12_47_0_3_3_3_3

New Line.l(r:p1udt15202-p1udt19457) Units=km Length=0.148467 bus1=p1udt19457.1.2.3 bus2=p1udt15202.1.2.3 switch=n enabled=y phases=3 Linecode=3P_OH_AL_ACSR_4/0_Penguin_12_47_0_3_3_3_3

New Line.l(r:p1udt19634lv-p1ulv36860) Units=km Length=0.00730083 bus1=p1udt19634lv.1.2.3 bus2=p1ulv36860.1.2.3 switch=n enabled=y phases=3 Linecode=3P_UG_AL_750kcmil_25_0_416_0_3_3_3_3

New Line.l(r:p1udt24549lv-p1ulv60517) Units=km Length=0.0100916 bus1=p1udt24549lv.1.2.3 bus2=p1ulv60517.1.2.3 switch=n enabled=y phases=3 Linecode=3P_UG_AL_750kcmil_25_0_416_0_3_3_3_3

New Line.l(r:p1udt19634-p1udt24549) Units=km Length=0.0421017 bus1=p1udt19634.1.2.3 bus2=p1udt24549.1.2.3 switch=n enabled=y phases=3 Linecode=3P_OH_AL_ACSR_4/0_Penguin_12_47_0_3_3_3_3

New Line.l(r:p1udt19457-p1udt19634) Units=km Length=0.200738 bus1=p1udt19457.1.2.3 bus2=p1udt19634.1.2.3 switch=n enabled=y phases=3 Linecode=3P_OH_AL_ACSR_4/0_Penguin_12_47_0_3_3_3_3

New Line.l(r:p1udt110-p1udt19457) Units=km Length=0.195703 bus1=p1udt110.1.2.3 bus2=p1udt19457.1.2.3 switch=n enabled=y phases=3 Linecode=3P_OH_AL_ACSR_4/0_Penguin_12_47_0_3_3_3_3

New Line.l(r:p1udt23231lv-p1ulv53189) Units=km Length=0.00619781 bus1=p1udt23231lv.1.2.3 bus2=p1ulv53189.1.2.3 switch=n enabled=y phases=3 Linecode=3P_UG_AL_350kcmil_15_0_416_0_3_3_3_3

New Line.l(r:p1udt23231-p1udt3662) Units=km Length=0.08362020000000002 bus1=p1udt3662.1.2.3 bus2=p1udt23231.1.2.3 switch=n enabled=y phases=3 Linecode=3P_OH_AL_ACSR_4/0_Penguin_12_47_0_3_3_3_3

New Line.l(r:p1udt22135lv-p1ulv47558) Units=km Length=0.0051964 bus1=p1udt22135lv.1.2.3 bus2=p1ulv47558.1.2.3 switch=n enabled=y phases=3 Linecode=3P_UG_AL_350kcmil_15_0_416_0_3_3_3_3

New Line.l(r:p1udt1947-p1udt22135) Units=km Length=0.138353 bus1=p1udt1947.1.2.3 bus2=p1udt22135.1.2.3 switch=n enabled=y phases=3 Linecode=3P_OH_AL_ACSR_4/0_Penguin_12_47_0_3_3_3_3

New Line.l(r:p1udt112-p1udt20754) Units=km Length=0.0576185 bus1=p1udt112-p1udt20754x.1.2.3 bus2=p1udt20754.1.2.3 switch=n enabled=y phases=3 Linecode=3P_OH_AL_ACSR_1033kcmil_Curlew_12.47_1_3_3_3_3

New Line.l(r:p1udt15202-p1udt4644) Units=km Length=0.650252 bus1=p1udt15202-p1udt4644x.1.2.3 bus2=p1udt4644.1.2.3 switch=n enabled=y phases=3 Linecode=3P_OH_AL_ACSR_1033kcmil_Curlew_12.47_1_3_3_3_3

New Line.elbswitch(r:p1udt15202-p1udt4644)p1u_265990 Units=km Length=0.001 bus1=p1udt15202.1.2.3 bus2=p1udt15202-p1udt4644x.1.2.3 switch=y enabled=n phases=3 Linecode=elbswitch_3_3_3_3

New Line.fuse(r:p1udt20050-p1udt7267)p1u_266687 Units=km Length=0.001 bus1=p1udt7267.2 bus2=p1udt20050-p1udt7267x.2 switch=n enabled=y phases=1 Linecode=fuse_1_1_1_1

New Fuse.Fuse_fuse(r:p1udt20050-p1udt7267)p1u_266687 monitoredobj=Line.fuse(r:p1udt20050-p1udt7267)p1u_266687 enabled=y ratedcurrent=100.0

New Line.fuse(r:p1udt21798-p1udt7267)p1u_266688 Units=km Length=0.001 bus1=p1udt7267.3 bus2=p1udt21798-p1udt7267x.3 switch=n enabled=y phases=1 Linecode=fuse_1_6_1_1_1

New Fuse.Fuse_fuse(r:p1udt21798-p1udt7267)p1u_266688 monitoredobj=Line.fuse(r:p1udt21798-p1udt7267)p1u_266688 enabled=y ratedcurrent=100.0

New Line.l(r:p1udt1947-p1uhs17_1247)_disconnect Units=km Length=0.001 bus1=p1udt1947-p1uhs17_1247x_b1_1.1.2.3 bus2=p1udt1947-p1uhs17_1247x_b2_1.1.2.3 switch=y enabled=y phases=3 Linecode=3P_OH_AL_ACSR_4/0_Penguin_12_47_0_3_3_3_3

New Line.l(r:p1udt1947-p1uhs17_1247)_cont Units=km Length=1.765062 bus1=p1udt1947-p1uhs17_1247x_b2_1.1.2.3 bus2=p1udt1947.1.2.3 switch=n enabled=y phases=3 Linecode=3P_OH_AL_ACSR_4/0_Penguin_12_47_0_3_3_3_3

